ELEMENTS
O  H  C  N
END
SPECIES
C3H8            C3H3            O               H               OH              
CO              H2              O2              H2O             
HO2             H2O2            CH              CH2             
CH3             CH4             C2H             C2H2            
C2H3            C2H4            C2H5            C2H6            C3H6            
I*C3H7          N*C3H7          CO2             HCO             
CH2O            C2HO            C3H4            C3H5            
N2              
END
REACTIONS
H+O2=>O+OH                                         2.000E+14    0.000   16802.10
O+OH=>H+O2                                         1.568E+13    0.000     841.30
H2+O=>H+OH                                         5.060E+04    2.670    6285.85
H+OH=>H2+O                                         2.222E+04    2.670    4371.41
H2+OH=>H+H2O                                       1.000E+08    1.600    3298.28
H+H2O=>H2+OH                                       4.312E+08    1.600   18274.38
2OH=>H2O+O                                         1.500E+09    1.140     100.38
H2O+O=>2OH                                         1.473E+10    1.140   16990.92
H+O2+M=>HO2+M                                      2.300E+18   -0.800       0.00
CH4/ 6.5/ CO/ 0.75/ CO2/ 1.5/ H2O/ 6.5/ N2/ 0.4/ O2/ 0.4/
HO2+M=>H+O2+M                                      3.190E+18   -0.800   46699.33
CH4/ 6.5/ CO/ 0.75/ CO2/ 1.5/ H2O/ 6.5/ N2/ 0.4/ O2/ 0.4/
H+HO2=>2OH                                         1.500E+14    0.000    1003.82
H+HO2=>H2+O2                                       2.500E+13    0.000     693.12
HO2+OH=>H2O+O2                                     6.000E+13    0.000       0.00
H+HO2=>H2O+O                                       3.000E+13    0.000    1720.84
HO2+O=>O2+OH                                       1.800E+13    0.000    -406.31
2HO2=>H2O2+O2                                      2.500E+11    0.000   -1242.83
2OH+M=>H2O2+M                                      3.250E+22   -2.000       0.00
CH4/ 6.5/ CO/ 0.75/ CO2/ 1.5/ H2O/ 6.5/ N2/ 0.4/ O2/ 0.4/
H2O2+M=>2OH+M                                      1.692E+24   -2.000   48348.47
CH4/ 6.5/ CO/ 0.75/ CO2/ 1.5/ H2O/ 6.5/ N2/ 0.4/ O2/ 0.4/
H+H2O2=>H2O+OH                                     1.000E+13    0.000    3585.09
H2O2+OH=>H2O+HO2                                   5.400E+12    0.000    1003.82
H2O+HO2=>H2O2+OH                                   1.802E+13    0.000   32206.02
2H+M=>H2+M                                         1.800E+18   -1.000       0.00
CH4/ 6.5/ CO/ 0.75/ CO2/ 1.5/ H2O/ 6.5/ N2/ 0.4/ O2/ 0.4/
H+OH+M=>H2O+M                                      2.200E+22   -2.000       0.00
CH4/ 6.5/ CO/ 0.75/ CO2/ 1.5/ H2O/ 6.5/ N2/ 0.4/ O2/ 0.4/
2O+M=>O2+M                                         2.900E+17   -1.000       0.00
CH4/ 6.5/ CO/ 0.75/ CO2/ 1.5/ H2O/ 6.5/ N2/ 0.4/ O2/ 0.4/
CO+OH=>CO2+H                                       4.400E+06    1.500    -740.92
CO2+H=>CO+OH                                       4.956E+08    1.500   21453.15
CH+O2=>HCO+O                                       3.000E+13    0.000       0.00
CH+CO2=>CO+HCO                                     3.400E+12    0.000     693.12
H+HCO=>CO+H2                                       2.000E+14    0.000       0.00
HCO+OH=>CO+H2O                                     1.000E+14    0.000       0.00
HCO+O2=>CO+HO2                                     3.000E+12    0.000       0.00
HCO+M=>CO+H+M                                      7.100E+14    0.000   16802.10
CH4/ 6.5/ CO/ 0.75/ CO2/ 1.5/ H2O/ 6.5/ N2/ 0.4/ O2/ 0.4/
CO+H+M=>HCO+M                                      1.136E+15    0.000    2382.89
CH4/ 6.5/ CO/ 0.75/ CO2/ 1.5/ H2O/ 6.5/ N2/ 0.4/ O2/ 0.4/
CH2+H=>CH+H2                                       8.400E+09    1.500     334.61
CH+H2=>CH2+H                                       5.830E+09    1.500    3126.20
CH2+O=>CO+2H                                       8.000E+13    0.000       0.00
CH2+O2=>CO+H+OH                                    6.500E+12    0.000    1505.74
CH2+O2=>CO2+2H                                     6.500E+12    0.000    1505.74
CH2O+H=>H2+HCO                                     2.500E+13    0.000    3991.40
CH2O+O=>HCO+OH                                     3.500E+13    0.000    3489.48
CH2O+OH=>H2O+HCO                                   3.000E+13    0.000    1195.03
CH2O+M=>H+HCO+M                                    1.400E+17    0.000   76481.84
CH4/ 6.5/ CO/ 0.75/ CO2/ 1.5/ H2O/ 6.5/ N2/ 0.4/ O2/ 0.4/
CH3+H=>CH2+H2                                      1.800E+14    0.000   15057.36
CH2+H2=>CH3+H                                      3.680E+13    0.000   10587.95
CH3+H(+M)=>CH4(+M)                                 2.10800E+14    0.000       0.00
     LOW  /  6.25700E+23  -1.800  0.00/
     TROE/   0.577  9.999999999999999e-51  2370.0  0.0 /
CH3+O=>CH2O+H                                      7.000E+13    0.000       0.00
2CH3(+M)=>C2H6(+M)                                 3.61300E+13    0.000       0.00
     LOW  /  1.27000E+41  -7.000  2762.91/
     TROE/   0.62  73.0  1180.0  0.0 /
CH3+O2=>CH2O+OH                                    3.400E+11    0.000    8938.81
CH4+H=>CH3+H2                                      2.200E+04    3.000    8747.61
CH3+H2=>CH4+H                                      8.391E+02    3.000    8260.04
CH4+O=>CH3+OH                                      1.200E+07    2.100    7624.28
CH4+OH=>CH3+H2O                                    1.600E+06    2.100    2461.76
CH3+H2O=>CH4+OH                                    2.631E+05    2.100   16950.29
C2H+H2=>C2H2+H                                     1.100E+13    0.000    2868.07
C2H2+H=>C2H+H2                                     5.270E+13    0.000   28668.74
C2H+O2=>C2HO+O                                     5.000E+13    0.000    1505.74
C2HO+H=>CH2+CO                                     3.000E+13    0.000       0.00
CH2+CO=>C2HO+H                                     2.361E+12    0.000   -7024.38
C2HO+O=>2CO+H                                      1.000E+14    0.000       0.00
C2H2+O=>CH2+CO                                     4.100E+08    1.500    1696.94
C2H2+O=>C2HO+H                                     4.300E+14    0.000   12117.59
C2H2+OH=>C2H+H2O                                   1.000E+13    0.000    7002.87
C2H+H2O=>C2H2+OH                                   9.000E+12    0.000   -3819.31
C2H2+CH=>C3H3                                      2.100E+14    0.000      -0.12
C2H3+H=>C2H2+H2                                    3.000E+13    0.000       0.00
C2H3+O2=>C2H2+HO2                                  5.400E+11    0.000       0.00
C2H3(+M)=>C2H2+H(+M)                               2.00000E+14    0.000   39744.26
     LOW  /  1.18700E+42  -7.500  45506.69/
     TROE/   0.65  1e+50  9.999999999999999e-51  0.0 /
C2H2+H(+M)=>C2H3(+M)                               1.05300E+14    0.000     810.23
     LOW  /  6.24955E+41  -7.500  6572.66/
     TROE/   0.65  1e+50  9.999999999999999e-51  0.0 /
C2H4+H=>C2H3+H2                                    1.500E+14    0.000   10205.54
C2H3+H2=>C2H4+H                                    9.600E+12    0.000    7801.15
C2H4+O=>CH3+CO+H                                   1.600E+09    1.200     740.92
C2H4+OH=>C2H3+H2O                                  3.000E+13    0.000    3011.47
C2H3+H2O=>C2H4+OH                                  8.283E+12    0.000   15583.17
C2H4+M=>C2H2+H2+M                                  2.500E+17    0.000   76434.03
CH4/ 6.5/ CO/ 0.75/ CO2/ 1.5/ H2O/ 6.5/ N2/ 0.4/ O2/ 0.4/
C2H5+H=>2CH3                                       3.000E+13    0.000       0.00
2CH3=>C2H5+H                                       3.547E+12    0.000   11873.80
C2H5+O2=>C2H4+HO2                                  2.000E+12    0.000    4995.22
C2H5(+M)=>C2H4+H(+M)                               1.30000E+13    0.000   39913.96
     LOW  /  1.00000E+16  0.000  30114.72/
     TROE/   0.5  422.8  422.8  0.0 /
C2H4+H(+M)=>C2H5(+M)                               2.07300E+13    0.000    3252.87
     LOW  /  1.59462E+15  0.000  -6546.37/
     TROE/   0.5  422.8  422.8  0.0 /
C2H6+H=>C2H5+H2                                    5.400E+02    3.500    5210.33
C2H6+O=>C2H5+OH                                    3.000E+07    2.000    5114.72
C2H6+OH=>C2H5+H2O                                  6.300E+06    2.000     645.32
C3H3+O2=>C2HO+CH2O                                 6.000E+12    0.000       0.00
C3H3+O=>C2H3+CO                                    3.800E+13    0.000       0.00
C3H4=>C3H3+H                                       5.000E+14    0.000   88432.12
C3H3+H=>C3H4                                       1.700E+13    0.000    4751.43
C3H4+O=>C2H2+CH2O                                  1.000E+12    0.000       0.00
C3H4+O=>C2H3+HCO                                   1.000E+12    0.000       0.00
C3H4+OH=>C2H3+CH2O                                 1.000E+12    0.000       0.00
C3H4+OH=>C2H4+HCO                                  1.000E+12    0.000       0.00
C3H5=>C3H4+H                                       3.980E+13    0.000   70052.58
C3H4+H=>C3H5                                       1.267E+13    0.000    7762.91
C3H5+H=>C3H4+H2                                    1.000E+13    0.000       0.00
C3H6=>C2H3+CH3                                     3.150E+15    0.000   85874.76
C2H3+CH3=>C3H6                                     2.511E+12    0.000   -8291.11
C3H6+H=>C3H5+H2                                    5.000E+12    0.000    1505.74
N*C3H7=>C2H4+CH3                                   9.600E+13    0.000   31022.94
N*C3H7=>C3H6+H                                     1.250E+14    0.000   37021.99
C3H6+H=>N*C3H7                                     4.609E+14    0.000    5136.23
I*C3H7=>C2H4+CH3                                   6.300E+13    0.000   36926.39
I*C3H7+O2=>C3H6+HO2                                1.000E+12    0.000    4995.22
C3H8+H=>H2+N*C3H7                                  1.300E+14    0.000    9703.63
C3H8+H=>H2+I*C3H7                                  1.000E+14    0.000    8341.30
C3H8+O=>N*C3H7+OH                                  3.000E+13    0.000    5760.04
C3H8+O=>I*C3H7+OH                                  2.600E+13    0.000    4469.41
C3H8+OH=>H2O+N*C3H7                                3.700E+12    0.000    1649.14
C3H8+OH=>H2O+I*C3H7                                2.800E+12    0.000     860.42
END
