THERMO ALL
   298.000  1000.000  5000.000
C3H8                    C   3H   8          G   298.000  5000.000  1000.000    1
 7.52521710e+00 1.88903400e-02-6.28392440e-06 9.17937280e-10-4.81240990e-14    2
-1.64645470e+04-1.78439030e+01 8.96920800e-01 2.66898610e-02 5.43142510e-06    3
-2.12600070e-08 9.24333010e-12-1.39549180e+04 1.93553310e+01                   4
C3H3                    C   3H   3          G   298.000  5000.000  1000.000    1
 5.74697260e+00 9.61553130e-03-3.80514910e-06 6.89939070e-10-4.65615970e-14    2
 3.65299310e+04-5.86345020e+00 3.09084080e+00 1.35495820e-02 2.72535330e-06    3
-1.43631850e-08 7.19814100e-12 3.73565440e+04 8.49168900e+00                   4
O                       O   1               G   298.000  5000.000  1000.000    1
 2.54205960e+00-2.75506190e-05-3.10280330e-09 4.55106740e-12-4.36805150e-16    2
 2.92308030e+04 4.92030800e+00 2.94642870e+00-1.63816650e-03 2.42103160e-06    3
-1.60284320e-09 3.89069640e-13 2.91476440e+04 2.96399490e+00                   4
H                       H   1               G   298.000  5000.000  1000.000    1
 2.50000000e+00 0.00000000e+00 0.00000000e+00 0.00000000e+00 0.00000000e+00    2
 2.54716270e+04-4.60117630e-01 2.50000000e+00 0.00000000e+00 0.00000000e+00    3
 0.00000000e+00 0.00000000e+00 2.54716270e+04-4.60117620e-01                   4
OH                      H   1O   1          G   298.000  5000.000  1000.000    1
 2.91312300e+00 9.54182480e-04-1.90843250e-07 1.27307950e-11 2.48039410e-16    2
 3.96470600e+03 5.42887350e+00 3.83655180e+00-1.07020140e-03 9.48497570e-07    3
 2.08435750e-10-2.33842650e-13 3.67158070e+03 4.98054560e-01                   4
CO                      C   1O   1          G   298.000  5000.000  1000.000    1
 2.98406960e+00 1.48913900e-03-5.78996840e-07 1.03645770e-10-6.93535500e-15    2
-1.42452280e+04 6.34791560e+00 3.71009280e+00-1.61909640e-03 3.69235940e-06    3
-2.03196740e-09 2.39533440e-13-1.43563100e+04 2.95553510e+00                   4
H2                      H   2               G   298.000  5000.000  1000.000    1
 3.10019010e+00 5.11194640e-04 5.26442100e-08-3.49099730e-11 3.69453450e-15    2
-8.77380420e+02-1.96294210e+00 3.05744510e+00 2.67652000e-03-5.80991620e-06    3
 5.52103910e-09-1.81227390e-12-9.88904740e+02-2.29970560e+00                   4
O2                      O   2               G   298.000  5000.000  1000.000    1
 3.62195350e+00 7.36182640e-04-1.96522280e-07 3.62015580e-11-2.89456270e-15    2
-1.20198250e+03 3.61509600e+00 3.62559850e+00-1.87821840e-03 7.05545440e-06    3
-6.76351370e-09 2.15559930e-12-1.04752260e+03 4.30527780e+00                   4
H2O                     H   2O   1          G   298.000  5000.000  1000.000    1
 2.71676330e+00 2.94513740e-03-8.02243740e-07 1.02266820e-10-4.84721450e-15    2
-2.99058260e+04 6.63056710e+00 4.07012750e+00-1.10844990e-03 4.15211800e-06    3
-2.96374040e-09 8.07021030e-13-3.02797220e+04-3.22700460e-01                   4
HO2                     H   1O   2          G   298.000  6000.000  1000.000    1
 4.09799720e+00 2.08482290e-03-5.02545790e-07 5.41347180e-11-2.23966310e-15    2
-1.17477800e+03 3.33242700e+00 3.24114920e+00 3.16546230e-03 7.38710180e-07    3
-2.36525110e-09 9.52097990e-13-8.58022400e+02 8.11793900e+00                   4
H2O2                    H   2O   2          G   298.000  5000.000  1000.000    1
 4.57316670e+00 4.33613630e-03-1.47468880e-06 2.34890370e-10-1.43165360e-14    2
-1.80069610e+04 5.01136960e-01 3.38875360e+00 6.56922600e-03-1.48501260e-07    3
-4.62580550e-09 2.47151470e-12-1.76631470e+04 6.78536310e+00                   4
CH                      C   1H   1          G   298.000  5000.000  1000.000    1
 2.26731160e+00 2.20430000e-03-6.22501910e-07 6.96899400e-11-2.12749520e-15    2
 7.08380370e+04 8.78893520e+00 3.56327520e+00-2.00313720e-04-4.01298140e-07    3
 1.82269220e-09-8.67683110e-13 7.04055060e+04 1.76280230e+00                   4
CH2                     C   1H   2          G   298.000  5000.000  1000.000    1
 2.75254790e+00 3.97820470e-03-1.49217310e-06 2.59568990e-10-1.71106730e-14    2
 4.55477590e+04 6.65347990e+00 3.58833470e+00 2.17241370e-03-1.33234080e-06    3
 1.94694450e-09-8.94313940e-13 4.53151880e+04 2.26278690e+00                   4
CH3                     C   1H   3          G   298.000  5000.000  1000.000    1
 2.84003270e+00 6.08690860e-03-2.17403380e-06 3.60425760e-10-2.27253000e-14    2
 1.64498130e+04 5.50567510e+00 3.46663500e+00 3.83018450e-03 1.01168020e-06    3
-1.88592360e-09 6.68031820e-13 1.63131040e+04 2.41721920e+00                   4
CH4                     C   1H   4          G   298.000  5000.000  1000.000    1
 1.50270720e+00 1.04167980e-02-3.91815220e-06 6.77778990e-10-4.42837060e-14    2
-9.97870780e+03 1.07071430e+01 3.82619320e+00-3.97945810e-03 2.45583400e-05    3
-2.27329260e-08 6.96269570e-12-1.01449500e+04 8.66900730e-01                   4
C2H                     C   2H   1          G   298.000  5000.000  1000.000    1
 4.56483940e+00 2.00594610e-03-4.93484810e-07 7.42849010e-11-5.43096100e-15    2
 6.22823560e+04-1.98727810e+00 2.40767980e+00 1.01745310e-02-1.38365310e-05    3
 1.04764140e-08-3.07593920e-12 6.28164740e+04 8.71704100e+00                   4
C2H2                    C   2H   2          G   298.000  5000.000  1000.000    1
 4.57510830e+00 5.12383580e-03-1.74523540e-06 2.86730650e-10-1.79514260e-14    2
 2.56074280e+04-3.57379400e+00 1.41027680e+00 1.90572750e-02-2.45013900e-05    3
 1.63908720e-08-4.13454470e-12 2.61882080e+04 1.13938270e+01                   4
C2H3                    C   2H   3          G   298.000  5000.000  1000.000    1
 6.14009770e+00 3.73770940e-03-2.70317220e-07-1.53774190e-10 2.19529530e-14    2
 3.12115170e+04-9.68643400e+00 2.96175990e+00 8.92724780e-03-7.53947640e-07    3
-2.84865170e-09 1.18926010e-12 3.23965540e+04 7.92748760e+00                   4
C2H4                    C   2H   4          G   298.000  5000.000  1000.000    1
 3.45521520e+00 1.14918030e-02-4.36517500e-06 7.61550950e-10-5.01232000e-14    2
 4.47731190e+03 2.69879590e+00 1.42568210e+00 1.13831400e-02 7.98900060e-06    3
-1.62536790e-08 6.74912560e-12 5.33707550e+03 1.46218190e+01                   4
C2H5                    C   2H   5          G   298.000  5000.000  1000.000    1
 3.31212810e+00 1.39507360e-02-5.07431880e-06 8.28573100e-10-5.02697720e-14    2
 1.22774910e+04 4.10151290e+00 2.91071870e+00 9.26902150e-03 9.04350510e-06    3
-1.15359640e-08 3.27956780e-12 1.27389830e+04 7.78620670e+00                   4
C2H6                    C   2H   6          G   298.000  5000.000  1000.000    1
 2.15552810e+00 1.47798610e-02 2.33528040e-06-6.41464280e-09 1.90369250e-12    2
-1.15245170e+04 1.07763160e+01 2.14157880e+00 1.05297200e-02 1.87302740e-05    3
-2.66911870e-08 1.00493320e-11-1.14104860e+04 1.16477570e+01                   4
C3H6                    C   3H   6          G   298.000  5000.000  1000.000    1
 6.73225690e+00 1.49083360e-02-4.94989940e-06 7.21202210e-10-3.76620430e-14    2
-9.23570310e+02-1.33133480e+01 1.49330710e+00 2.09251750e-02 4.48679380e-06    3
-1.66891210e-08 7.15814650e-12 1.07482640e+03 1.61453400e+01                   4
I*C3H7                  C   3H   7          G   298.000  5000.000  1000.000    1
 8.06336880e+00 1.57448760e-02-5.18239180e-06 7.47724550e-10-3.85442210e-14    2
 5.31387110e+03-2.19264680e+01 1.71329980e+00 2.54261640e-02 1.58080820e-06    3
-1.82128620e-08 8.82771030e-12 7.53580860e+03 1.29790080e+01                   4
N*C3H7                  C   3H   7          G   298.000  5000.000  1000.000    1
 7.97829060e+00 1.57611330e-02-5.17324320e-06 7.44389220e-10-3.82497820e-14    2
 7.57940230e+03-1.93561100e+01 1.92253680e+00 2.47892740e-02 1.81024920e-06    3
-1.78326580e-08 8.58299630e-12 9.71328120e+03 1.39927150e+01                   4
CO2                     C   1O   2          G   298.000  5000.000  1000.000    1
 4.46080410e+00 3.09817190e-03-1.23925710e-06 2.27413250e-10-1.55259540e-14    2
-4.89614420e+04-9.86359820e-01 2.40077970e+00 8.73509570e-03-6.60708780e-06    3
 2.00218610e-09 6.32740390e-16-4.83775270e+04 9.69514570e+00                   4
HCO                     C   1H   1O   1     G   298.000  5000.000  1000.000    1
 3.47383480e+00 3.43702270e-03-1.36326640e-06 2.49286450e-10-1.70443310e-14    2
 3.95940050e+03 6.04533400e+00 3.88401920e+00-8.29744480e-04 7.79008090e-06    3
-7.06169620e-09 1.99717300e-12 4.05638600e+03 4.83541330e+00                   4
CH2O                    C   1H   2O   1     G   298.000  5000.000  1000.000    1
 2.83642490e+00 6.86052980e-03-2.68826470e-06 4.79712580e-10-3.21184060e-14    2
-1.52360310e+04 7.85311690e+00 3.79637830e+00-2.57017850e-03 1.85488150e-05    3
-1.78691770e-08 5.55044510e-12-1.50889470e+04 4.75481630e+00                   4
C2HO                    C   2H   1O   1     G   298.000  5000.000  1000.000    1
 7.61162310e+00 1.41202180e-03 4.46720550e-07-2.47232550e-10 2.60930350e-14    2
 1.84811750e+04-1.63521220e+01 2.32547510e+00 1.57607580e-02-1.02774140e-05    3
-3.52127740e-10 1.79253480e-12 1.98406020e+04 1.07699810e+01                   4
C3H4                    C   3H   4          G   298.000  5000.000  1000.000    1
 5.04061860e+00 1.25320880e-02-4.51793050e-06 7.29732380e-10-4.36503570e-14    2
 2.08668410e+04-2.81389330e+00 3.25857510e+00 1.24634100e-02 1.00955880e-05    3
-2.13096330e-08 9.23291860e-12 2.14665780e+04 7.28525930e+00                   4
C3H5                    C   3H   5          G   298.000  5000.000  1000.000    1
 7.90919780e+00 1.21152550e-02-4.11758630e-06 6.15667960e-10-3.32357330e-14    2
 1.23541560e+04-1.96723330e+01-5.41004000e-01 2.72841010e-02-9.63653290e-07    3
-1.91294620e-08 9.83941750e-12 1.51303950e+04 2.60673370e+01                   4
N2                      N   2               G   298.000  5000.000  1000.000    1
 2.89631940e+00 1.51548660e-03-5.72352770e-07 9.98073930e-11-6.52235550e-15    2
-9.05861840e+02 6.16151480e+00 3.67482610e+00-1.20815000e-03 2.32401020e-06    3
-6.32175590e-10-2.25772530e-13-1.06115880e+03 2.35804240e+00                   4
END
