/*--------------------------------*- C++ -*----------------------------------*\
| =========                 |                                                 |
| \\      /  F ield         | OpenFOAM: The Open Source CFD Toolbox           |
|  \\    /   O peration     | Version:  2.1.0                                 |
|   \\  /    A nd           | Web:      www.OpenFOAM.org                      |
|    \\/     M anipulation  |                                                 |
\*---------------------------------------------------------------------------*/
FoamFile
{
    version     2.0;
    format      ascii;
    class       dictionary;
    location    "constant";
    object      tableProperties;
}
// * * * * * * * * * * * * * * * * * * * * * * * * * * * * * * * * * * * * * //

mixtureFractionDefinition "readFromTable";

interpolationType       linearInterpolation;

operatingPressure       1e5;

canteraFileName         "FlameletData/Table";

Pv_param
50
(
0
0.00597
0.01193
0.0179
0.02386
0.02983
0.03579
0.04176
0.04773
0.05369
0.05966
0.06562
0.07159
0.07755
0.08352
0.08949
0.09545
0.10142
0.10738
0.11335
0.11931
0.12528
0.13124
0.13721
0.14318
0.14914
0.15511
0.16107
0.16704
0.173
0.17897
0.18494
0.1909
0.19687
0.20283
0.2088
0.21476
0.22073
0.2267
0.23266
0.23863
0.24459
0.25056
0.25652
0.26249
0.26846
0.27442
0.28039
0.28635
0.29232
);

Zeta_param
10
(
0
0.11
0.22
0.33
0.44
0.55
0.66
0.77
0.88
0.99
);

Z_param
165
(
0
0.005
0.01
0.012
0.014
0.016
0.018
0.02
0.022
0.024
0.026
0.028
0.03
0.032
0.034
0.036
0.038
0.04
0.042
0.044
0.046
0.048
0.05
0.051
0.052
0.053
0.054
0.055
0.056
0.057
0.058
0.059
0.06
0.061
0.062
0.063
0.064
0.065
0.066
0.067
0.068
0.069
0.07
0.072
0.074
0.076
0.078
0.08
0.082
0.084
0.086
0.088
0.09
0.095
0.1
0.105
0.11
0.115
0.12
0.125
0.13
0.135
0.14
0.145
0.15
0.155
0.16
0.165
0.17
0.175
0.18
0.185
0.19
0.195
0.2
0.205
0.21
0.215
0.22
0.225
0.23
0.235
0.24
0.245
0.25
0.255
0.26
0.265
0.27
0.275
0.28
0.285
0.29
0.295
0.3
0.31
0.32
0.33
0.34
0.35
0.36
0.37
0.38
0.39
0.4
0.41
0.42
0.43
0.44
0.45
0.46
0.47
0.48
0.49
0.5
0.51
0.52
0.53
0.54
0.55
0.56
0.57
0.58
0.59
0.6
0.61
0.62
0.63
0.64
0.65
0.66
0.67
0.68
0.69
0.7
0.71
0.72
0.73
0.74
0.75
0.76
0.77
0.78
0.79
0.8
0.81
0.82
0.83
0.84
0.85
0.86
0.87
0.88
0.89
0.9
0.91
0.92
0.93
0.94
0.95
0.96
0.97
0.98
0.99
1
);

// ************************************************************************* //
