/*--------------------------------*- C++ -*----------------------------------*\
| =========                 |                                                 |
| \\      /  F ield         | OpenFOAM: The Open Source CFD Toolbox           |
|  \\    /   O peration     | Version:  2.1.0                                 |
|   \\  /    A nd           | Web:      www.OpenFOAM.org                      |
|    \\/     M anipulation  |                                                 |
\*---------------------------------------------------------------------------*/
FoamFile
{
    version     2.0;
    format      ascii;
    class       dictionary;
    location    "system";
    object      fvSolution;
}
// * * * * * * * * * * * * * * * * * * * * * * * * * * * * * * * * * * * * * //

solvers
{
    rho
    {
        solver          PCG;
        preconditioner  DIC;
        tolerance       1e-09;
        relTol          0.001;
    }

    rhoFinal
    {
        $rho;
        tolerance       1e-09;
        relTol          0;
    }

    p_rgh
    {
        solver           PCG;
        preconditioner   DIC;
        tolerance        1e-06;
        relTol           0.001;
    }

    p_rghFinal
    {
        $p_rgh;
        tolerance        1e-06;
        relTol           0.0;
    }

    "(U|Zmix|varZ|chi|k)"
    {
        solver          PBiCG;
        preconditioner  DILU;
        tolerance       1e-09;
        relTol          0.001;
    }

    "(U|Zmix|varZ|chi|k)Final"
    {
        solver          PBiCG;
        preconditioner  DILU;
        tolerance       1e-09;
        relTol          0;
    }

}

PIMPLE
{
    momentumPredictor yes;
    nOuterCorrectors  10;
    nCorrectors     2;
    turbOnFinalIterOnly no;
    //nNonOrthogonalCorrectors 1;
    residualControl
    {
        U
        {
                tolerance  1e-5;
                relTol      0;
        }
        p
        {
                tolerance  1e-5;
                relTol      0;
        }
        p_rgh
        {
                tolerance  1e-5;
                relTol      0;
        }
     }
}

// ************************************************************************* //
