/*--------------------------------*- C++ -*----------------------------------*\
| =========                 |                                                 |
| \\      /  F ield         | OpenFOAM: The Open Source CFD Toolbox           |
|  \\    /   O peration     | Version:  2.3.0                                 |
|   \\  /    A nd           | Web:      www.OpenFOAM.org                      |
|    \\/     M anipulation  |                                                 |
\*---------------------------------------------------------------------------*/
FoamFile
{
    version     2.0;
    format      ascii;
    class       dictionary;
    object      setFieldsDict;
}

// * * * * * * * * * * * * * * * * * * * * * * * * * * * * * * * * * * * * * //

defaultFieldValues
(
    volScalarFieldValue chi 0 
);

regions
(
    // Set patch values (using ==)
    /*boxToCell
    {
	box (-1 -0.005 0.1) (1 0.005 0.2);
        fieldValues
        (
            volScalarFieldValue chi 0.11
        );
    }*/
    cylinderToCell
    {
        p1 (0 0.0 0.2); //min
        p2 (0 0.0 0.21); //max
        radius 0.01;

        fieldValues
        (
            volScalarFieldValue chi 0.2
        );
    }
);

// ************************************************************************* //
